#================================================= 
#| Ryan's Auto-Generated MITgcm data.layers file | 
#================================================= 
 &LAYERS_PARM01
 useBolus=.TRUE.,

 layers_name(2) = 'TH'
 layers_bounds(1:222,2)=-50.0,
          -4.0, -3.8, -3.6, -3.4, -3.2, -3.0, -2.8, -2.6, -2.4, -2.2, -2.0, -1.8, -1.6,
          -1.4, -1.2, -1.0, -0.8, -0.6, -0.4, -0.2,   0    0.2,  0.4,  0.6,  0.8,  1.0,
           1.2,  1.4,  1.6,  1.8,  2.0,  2.2,  2.4,  2.6,  2.8,  3.0,  3.2,  3.4,  3.6,
           3.8,  4.0,  4.2,  4.4,  4.6,  4.8,  5.0,  5.2,  5.4,  5.6,  5.8,  6.0,  6.2,
           6.4,  6.6,  6.8,  7.0,  7.2,  7.4,  7.6,  7.8,  8.0,  8.2,  8.4,  8.6,  8.8,
           9.0,  9.2,  9.4,  9.6,  9.8, 10.0, 10.2, 10.4, 10.6, 10.8, 11.0, 11.2, 11.4,
          11.6, 11.8, 12.0, 12.2, 12.4, 12.6, 12.8, 13.0, 13.2, 13.4, 13.6, 13.8, 14.0,
          14.2, 14.4, 14.6, 14.8, 15.0, 15.2, 15.4, 15.6, 15.8, 16.0, 16.2, 16.4, 16.6,
          16.8, 17.0, 17.2, 17.4, 17.6, 17.8, 18.0, 18.2, 18.4, 18.6, 18.8, 19.0, 19.2,
          19.4, 19.6, 19.8, 20.0, 20.2, 20.4, 20.6, 20.8, 21.0, 21.2, 21.4, 21.6, 21.8,
          22.0, 22.2, 22.4, 22.6, 22.8, 23.0, 23.2, 23.4, 23.6, 23.8, 24.0, 24.2, 24.4,
          24.6, 24.8, 25.0, 25.2, 25.4, 25.6, 25.8, 26.0, 26.2, 26.4, 26.6, 26.8, 27.0,
          27.2, 27.4, 27.6, 27.8, 28.0, 28.2, 28.4, 28.6, 28.8, 29.0, 29.2, 29.4, 29.6,
          29.8, 30.0, 30.2, 30.4, 30.6, 30.8, 31.0, 31.2, 31.4, 31.6, 31.8, 32.0, 32.2,
          32.4, 32.6, 32.8, 33.0, 33.2, 33.4, 33.6, 33.8, 34.0, 34.2, 34.4, 34.6, 34.8,
          35.0, 35.2, 35.4, 35.6, 35.8, 36.0, 36.2, 36.4, 36.6, 36.8, 37.0, 37.2, 37.4,
          37.6, 37.8, 38.0, 38.2, 38.4, 38.6, 38.8, 39.0, 39.2, 39.4, 39.6, 39.8, 50.0,

 layers_name(1)= 'SLT'
 layers_bounds(1:222,1) =  00.00,28.60,28.80,29.00,29.20,29.40,29.60,29.80,30.00,30.20,
            30.40,30.60,30.80,31.00,31.20,31.40,31.60,31.80,32.00,32.05,
            32.10,32.15,32.20,32.25,32.30,32.35,32.40,32.45,32.50,32.55,
            32.60,32.65,32.70,32.75,32.80,32.85,32.90,32.95,33.00,33.05,
            33.10,33.15,33.20,33.25,33.30,33.35,33.40,33.45,33.50,33.55,
            33.60,33.65,33.70,33.75,33.80,33.85,33.90,33.95,34.00,34.05,
            34.10,34.15,34.20,34.25,34.30,34.35,34.40,34.41,34.42,34.43,
            34.44,34.45,34.46,34.47,34.48,34.49,34.50,34.51,34.52,34.53,
            34.54,34.55,34.56,34.57,34.58,34.59,34.60,34.61,34.62,34.63,
            34.64,34.65,34.66,34.67,34.68,34.69,34.70,34.71,34.72,34.73,
            34.74,34.75,34.76,34.77,34.78,34.79,34.80,34.81,34.82,34.83,
            34.84,34.85,34.86,34.87,34.88,34.89,34.90,34.91,34.92,34.93,
            34.94,34.95,34.96,34.97,34.98,34.99,35.00,35.01,35.02,35.03,
            35.04,35.05,35.06,35.07,35.08,35.09,35.10,35.11,35.12,35.13,
            35.14,35.15,35.16,35.17,35.18,35.19,35.20,35.21,35.22,35.23,
            35.24,35.25,35.26,35.27,35.28,35.29,35.30,35.35,35.40,35.45,
            35.50,35.55,35.60,35.65,35.70,35.75,35.80,35.85,35.90,35.95,
            36.00,36.05,36.10,36.15,36.20,36.25,36.30,36.35,36.40,36.45,
            36.50,36.55,36.60,36.65,36.70,36.75,36.80,36.85,36.90,36.95,
            37.00,37.05,37.10,37.15,37.20,37.25,37.30,37.35,37.40,37.45,
            37.50,37.55,37.60,37.65,37.70,37.75,37.80,37.85,37.90,37.95,
            38.00,38.20,38.40,38.60,38.80,39.00,39.20,39.40,39.60,39.80,
            40.00,50.00,

#sigma0
 layers_name(3) = 'RHO'
 layers_krho(3) = 1
 layers_bounds(1:222,3) =12.00,12.50,13.00,13.50,14.00,14.50,15.00,15.50,
          16.00,16.50,17.00,17.50,18.00,18.50,19.00,19.50,
          20.00,20.10,20.20,20.30,20.40,20.50,20.60,20.70,
          20.80,20.90,21.00,21.10,21.20,21.30,21.40,21.50,
          21.60,21.70,21.80,21.90,22.00,22.10,22.20,22.30,
          22.40,22.50,22.60,22.70,22.80,22.90,23.00,23.10,
          23.20,23.30,23.40,23.50,23.60,23.70,23.80,23.90,
          24.00,24.10,24.20,24.30,24.40,24.50,24.60,24.70,
          24.80,24.90,25.00,25.10,25.20,25.30,25.40,25.50,
          25.60,25.70,25.80,25.90,26.00,26.10,26.20,26.30,
          26.40,26.50,26.60,26.70,26.80,26.90,27.00,27.10,
          27.20,27.30,27.40,27.42,27.44,27.46,27.48,27.50,
          27.52,27.54,27.56,27.58,27.60,27.62,27.64,27.66,
          27.68,27.70,27.72,27.74,27.76,27.78,27.80,27.82,
          27.84,27.86,27.88,27.90,27.92,27.94,27.96,27.98,
          28.00,28.02,28.04,28.06,28.08,28.10,28.12,28.14,
          28.16,28.18,28.20,28.22,28.24,28.26,28.28,28.30,
          28.32,28.34,28.36,28.38,28.40,28.42,28.44,28.46,
          28.48,28.50,28.52,28.54,28.56,28.58,28.60,28.62,
          28.64,28.66,28.68,28.70,28.72,28.74,28.76,28.78,
          28.80,28.82,28.84,28.86,28.88,28.90,28.92,28.94,
          28.96,28.98,29.00,29.02,29.04,29.06,29.08,29.10,
          29.12,29.14,29.16,29.18,29.20,29.22,29.24,29.26,
          29.28,29.30,29.32,29.34,29.36,29.38,29.40,29.42,
          29.44,29.46,29.48,29.50,29.52,29.54,29.56,29.58,
          29.60,29.62,29.64,29.66,29.68,29.70,29.72,29.74,
          29.76,29.78,29.80,30.00,30.10,30.20,30.30,30.40,
          30.50,30.60,30.70,30.80,30.90,50.00,

#sigma2
#LAYER_nb = 3
#layers_kref=38,
#layers_G=1020.00,1020.50,1021.00,1021.50,1022.00,1022.50,1023.00,1023.50,
#         1024.00,1024.50,1025.00,1025.50,1026.00,1026.50,1027.00,1027.50,
#         1028.00,1028.10,1028.20,1028.30,1028.40,1028.50,1028.60,1028.70,
#         1028.80,1028.90,1029.00,1029.10,1029.20,1029.30,1029.40,1029.50,
#         1029.60,1029.70,1029.80,1029.90,1030.00,1030.10,1030.20,1030.30,
#         1030.40,1030.50,1030.60,1030.70,1030.80,1030.90,1031.00,1031.10,
#         1031.20,1031.30,1031.40,1031.50,1031.60,1031.70,1031.80,1031.90,
#         1032.00,1032.10,1032.20,1032.30,1032.40,1032.50,1032.60,1032.70,
#         1032.80,1032.90,1033.00,1033.10,1033.20,1033.30,1033.40,1033.50,
#         1033.60,1033.70,1033.80,1033.90,1034.00,1034.10,1034.20,1034.30,
#         1034.40,1034.50,1034.60,1034.70,1034.80,1034.90,1035.00,1035.10,
#         1035.20,1035.30,1035.40,1035.42,1035.44,1035.46,1035.48,1035.50,
#         1035.52,1035.54,1035.56,1035.58,1035.60,1035.62,1035.64,1035.66,
#         1035.68,1035.70,1035.72,1035.74,1035.76,1035.78,1035.80,1035.82,
#         1035.84,1035.86,1035.88,1035.90,1035.92,1035.94,1035.96,1035.98,
#         1036.00,1036.02,1036.04,1036.06,1036.08,1036.10,1036.12,1036.14,
#         1036.16,1036.18,1036.20,1036.22,1036.24,1036.26,1036.28,1036.30,
#         1036.32,1036.34,1036.36,1036.38,1036.40,1036.42,1036.44,1036.46,
#         1036.48,1036.50,1036.52,1036.54,1036.56,1036.58,1036.60,1036.62,
#         1036.64,1036.66,1036.68,1036.70,1036.72,1036.74,1036.76,1036.78,
#         1036.80,1036.82,1036.84,1036.86,1036.88,1036.90,1036.92,1036.94,
#         1036.96,1036.98,1037.00,1037.02,1037.04,1037.06,1037.08,1037.10,
#         1037.12,1037.14,1037.16,1037.18,1037.20,1037.22,1037.24,1037.26,
#         1037.28,1037.30,1037.32,1037.34,1037.36,1037.38,1037.40,1037.42,
#         1037.44,1037.46,1037.48,1037.50,1037.52,1037.54,1037.56,1037.58,
#         1037.60,1037.62,1037.64,1037.66,1037.68,1037.70,1037.72,1037.74,
#         1037.76,1037.78,1037.80,1038.00,1038.10,1038.20,1038.30,1038.40,
#         1038.50,1038.60,1038.70,1038.80,1038.90,1050.00,
          
 &
